Circuit: * E:\Box Sync\ICEE\ICEE-repos\IceLander-Power-test-pcb\sim\Draft1.asc

Direct Newton iteration failed to find .op point.  (Use ".option noopiter" to skip.)
Starting Gmin stepping
Gmin = 10
Gmin = 1.07374
Gmin = 0.115292
Gmin = 0.0123794
Gmin = 0.00132923
Gmin = 0.000142725
Gmin = 1.5325e-005
vernier = 0.5
Gmin = 2.5711e-006
vernier = 0.25
vernier = 0.125
vernier = 0.0625
vernier = 0.03125
vernier = 0.015625
vernier = 0.0078125
vernier = 0.00390625
vernier = 0.00195313
vernier = 0.000976563
vernier = 0.000488281
Gmin = 2.5711e-006
Gmin = 0
Gmin stepping failed

Starting source stepping with srcstepmethod=0
Source Step = 3.0303%
Source Step = 33.3333%
Source Step = 63.6364%
Source Step = 78.7997%
vernier = 0.000976563
Starting source stepping with srcstepmethod=1
Source Step = 3.0303%
Source Step = 33.3333%
Source Step = 63.6364%
Source Step = 93.9394%
Source Step = 100%
Source Step = 100%
Source Step = 100%
Source Step = 100%
Source stepping succeeded in finding the operating point.


Date: Wed Aug 19 10:21:13 2020
Total elapsed time: 0.293 seconds.

tnom = 27
temp = 27
method = modified trap
totiter = 7460
traniter = 2126
tranpoints = 1064
accept = 1060
rejected = 4
matrix size = 24
fillins = 24
solver = Normal
Thread vector: 6.6/4.6[2] 1.2/1.4[1] 1.1/2.4[1] 0.1/0.9[1]  2592/500
Matrix Compiler1: 2.17 KB object code size  0.4/0.2/[0.1]
Matrix Compiler2: 2.61 KB object code size  0.3/0.3/[0.2]

